SimDSE/config/loadData33.dss
!Load definitions
New Load.2.1 Bus1=2.1 Phases=1 kW=0 kvar=0 kv=7.31 vminpu=0.9 vmaxpu=1.1
New Load.2.2 Bus1=2.2 Phases=1 kW=0 kvar=0 kv=7.31 vminpu=0.9 vmaxpu=1.1
New Load.2.3 Bus1=2.3 Phases=1 kW=0 kvar=0 kv=7.31 vminpu=0.9 vmaxpu=1.1
New Load.3.1 Bus1=3.1 Phases=1 kW=0 kvar=0 kv=7.31 vminpu=0.9 vmaxpu=1.1
New Load.3.2 Bus1=3.2 Phases=1 kW=0 kvar=0 kv=7.31 vminpu=0.9 vmaxpu=1.1
New Load.3.3 Bus1=3.3 Phases=1 kW=0 kvar=0 kv=7.31 vminpu=0.9 vmaxpu=1.1
New Load.4.1 Bus1=4.1 Phases=1 kW=0 kvar=0 kv=7.31 vminpu=0.9 vmaxpu=1.1
New Load.4.2 Bus1=4.2 Phases=1 kW=0 kvar=0 kv=7.31 vminpu=0.9 vmaxpu=1.1
New Load.4.3 Bus1=4.3 Phases=1 kW=0 kvar=0 kv=7.31 vminpu=0.9 vmaxpu=1.1
New Load.5.1 Bus1=5.1 Phases=1 kW=0 kvar=0 kv=7.31 vminpu=0.9 vmaxpu=1.1
New Load.5.2 Bus1=5.2 Phases=1 kW=0 kvar=0 kv=7.31 vminpu=0.9 vmaxpu=1.1
New Load.5.3 Bus1=5.3 Phases=1 kW=0 kvar=0 kv=7.31 vminpu=0.9 vmaxpu=1.1
New Load.6.1 Bus1=6.1 Phases=1 kW=0 kvar=0 kv=7.31 vminpu=0.9 vmaxpu=1.1
New Load.6.2 Bus1=6.2 Phases=1 kW=0 kvar=0 kv=7.31 vminpu=0.9 vmaxpu=1.1
New Load.6.3 Bus1=6.3 Phases=1 kW=0 kvar=0 kv=7.31 vminpu=0.9 vmaxpu=1.1
New Load.7.1 Bus1=7.1 Phases=1 kW=0 kvar=0 kv=7.31 vminpu=0.9 vmaxpu=1.1
New Load.7.2 Bus1=7.2 Phases=1 kW=0 kvar=0 kv=7.31 vminpu=0.9 vmaxpu=1.1
New Load.7.3 Bus1=7.3 Phases=1 kW=0 kvar=0 kv=7.31 vminpu=0.9 vmaxpu=1.1
New Load.8.1 Bus1=8.1 Phases=1 kW=0 kvar=0 kv=7.31 vminpu=0.9 vmaxpu=1.1
New Load.8.2 Bus1=8.2 Phases=1 kW=0 kvar=0 kv=7.31 vminpu=0.9 vmaxpu=1.1
New Load.8.3 Bus1=8.3 Phases=1 kW=0 kvar=0 kv=7.31 vminpu=0.9 vmaxpu=1.1
New Load.9.1 Bus1=9.1 Phases=1 kW=0 kvar=0 kv=7.31 vminpu=0.9 vmaxpu=1.1
New Load.9.2 Bus1=9.2 Phases=1 kW=0 kvar=0 kv=7.31 vminpu=0.9 vmaxpu=1.1
New Load.9.3 Bus1=9.3 Phases=1 kW=0 kvar=0 kv=7.31 vminpu=0.9 vmaxpu=1.1
New Load.10.1 Bus1=10.1 Phases=1 kW=0 kvar=0 kv=7.31 vminpu=0.9 vmaxpu=1.1
New Load.10.2 Bus1=10.2 Phases=1 kW=0 kvar=0 kv=7.31 vminpu=0.9 vmaxpu=1.1
New Load.10.3 Bus1=10.3 Phases=1 kW=0 kvar=0 kv=7.31 vminpu=0.9 vmaxpu=1.1
New Load.11.1 Bus1=11.1 Phases=1 kW=0 kvar=0 kv=7.31 vminpu=0.9 vmaxpu=1.1
New Load.11.2 Bus1=11.2 Phases=1 kW=0 kvar=0 kv=7.31 vminpu=0.9 vmaxpu=1.1
New Load.11.3 Bus1=11.3 Phases=1 kW=0 kvar=0 kv=7.31 vminpu=0.9 vmaxpu=1.1
New Load.12.1 Bus1=12.1 Phases=1 kW=0 kvar=0 kv=7.31 vminpu=0.9 vmaxpu=1.1
New Load.12.2 Bus1=12.2 Phases=1 kW=0 kvar=0 kv=7.31 vminpu=0.9 vmaxpu=1.1
New Load.12.3 Bus1=12.3 Phases=1 kW=0 kvar=0 kv=7.31 vminpu=0.9 vmaxpu=1.1
New Load.13.1 Bus1=13.1 Phases=1 kW=0 kvar=0 kv=7.31 vminpu=0.9 vmaxpu=1.1
New Load.13.2 Bus1=13.2 Phases=1 kW=0 kvar=0 kv=7.31 vminpu=0.9 vmaxpu=1.1
New Load.13.3 Bus1=13.3 Phases=1 kW=0 kvar=0 kv=7.31 vminpu=0.9 vmaxpu=1.1
New Load.14.1 Bus1=14.1 Phases=1 kW=0 kvar=0 kv=7.31 vminpu=0.9 vmaxpu=1.1
New Load.14.2 Bus1=14.2 Phases=1 kW=0 kvar=0 kv=7.31 vminpu=0.9 vmaxpu=1.1
New Load.14.3 Bus1=14.3 Phases=1 kW=0 kvar=0 kv=7.31 vminpu=0.9 vmaxpu=1.1
New Load.15.1 Bus1=15.1 Phases=1 kW=0 kvar=0 kv=7.31 vminpu=0.9 vmaxpu=1.1
New Load.15.2 Bus1=15.2 Phases=1 kW=0 kvar=0 kv=7.31 vminpu=0.9 vmaxpu=1.1
New Load.15.3 Bus1=15.3 Phases=1 kW=0 kvar=0 kv=7.31 vminpu=0.9 vmaxpu=1.1
New Load.16.1 Bus1=16.1 Phases=1 kW=0 kvar=0 kv=7.31 vminpu=0.9 vmaxpu=1.1
New Load.16.2 Bus1=16.2 Phases=1 kW=0 kvar=0 kv=7.31 vminpu=0.9 vmaxpu=1.1
New Load.16.3 Bus1=16.3 Phases=1 kW=0 kvar=0 kv=7.31 vminpu=0.9 vmaxpu=1.1
New Load.17.1 Bus1=17.1 Phases=1 kW=0 kvar=0 kv=7.31 vminpu=0.9 vmaxpu=1.1
New Load.17.2 Bus1=17.2 Phases=1 kW=0 kvar=0 kv=7.31 vminpu=0.9 vmaxpu=1.1
New Load.17.3 Bus1=17.3 Phases=1 kW=0 kvar=0 kv=7.31 vminpu=0.9 vmaxpu=1.1
New Load.18.1 Bus1=18.1 Phases=1 kW=0 kvar=0 kv=7.31 vminpu=0.9 vmaxpu=1.1
New Load.18.2 Bus1=18.2 Phases=1 kW=0 kvar=0 kv=7.31 vminpu=0.9 vmaxpu=1.1
New Load.18.3 Bus1=18.3 Phases=1 kW=0 kvar=0 kv=7.31 vminpu=0.9 vmaxpu=1.1
New Load.19.1 Bus1=19.1 Phases=1 kW=0 kvar=0 kv=7.31 vminpu=0.9 vmaxpu=1.1
New Load.19.2 Bus1=19.2 Phases=1 kW=0 kvar=0 kv=7.31 vminpu=0.9 vmaxpu=1.1
New Load.19.3 Bus1=19.3 Phases=1 kW=0 kvar=0 kv=7.31 vminpu=0.9 vmaxpu=1.1
New Load.20.1 Bus1=20.1 Phases=1 kW=0 kvar=0 kv=7.31 vminpu=0.9 vmaxpu=1.1
New Load.20.2 Bus1=20.2 Phases=1 kW=0 kvar=0 kv=7.31 vminpu=0.9 vmaxpu=1.1
New Load.20.3 Bus1=20.3 Phases=1 kW=0 kvar=0 kv=7.31 vminpu=0.9 vmaxpu=1.1
New Load.21.1 Bus1=21.1 Phases=1 kW=0 kvar=0 kv=7.31 vminpu=0.9 vmaxpu=1.1
New Load.21.2 Bus1=21.2 Phases=1 kW=0 kvar=0 kv=7.31 vminpu=0.9 vmaxpu=1.1
New Load.21.3 Bus1=21.3 Phases=1 kW=0 kvar=0 kv=7.31 vminpu=0.9 vmaxpu=1.1
New Load.22.1 Bus1=22.1 Phases=1 kW=0 kvar=0 kv=7.31 vminpu=0.9 vmaxpu=1.1
New Load.22.2 Bus1=22.2 Phases=1 kW=0 kvar=0 kv=7.31 vminpu=0.9 vmaxpu=1.1
New Load.22.3 Bus1=22.3 Phases=1 kW=0 kvar=0 kv=7.31 vminpu=0.9 vmaxpu=1.1
New Load.23.1 Bus1=23.1 Phases=1 kW=0 kvar=0 kv=7.31 vminpu=0.9 vmaxpu=1.1
New Load.23.2 Bus1=23.2 Phases=1 kW=0 kvar=0 kv=7.31 vminpu=0.9 vmaxpu=1.1
New Load.23.3 Bus1=23.3 Phases=1 kW=0 kvar=0 kv=7.31 vminpu=0.9 vmaxpu=1.1
New Load.24.1 Bus1=24.1 Phases=1 kW=0 kvar=0 kv=7.31 vminpu=0.9 vmaxpu=1.1
New Load.24.2 Bus1=24.2 Phases=1 kW=0 kvar=0 kv=7.31 vminpu=0.9 vmaxpu=1.1
New Load.24.3 Bus1=24.3 Phases=1 kW=0 kvar=0 kv=7.31 vminpu=0.9 vmaxpu=1.1
New Load.25.1 Bus1=25.1 Phases=1 kW=0 kvar=0 kv=7.31 vminpu=0.9 vmaxpu=1.1
New Load.25.2 Bus1=25.2 Phases=1 kW=0 kvar=0 kv=7.31 vminpu=0.9 vmaxpu=1.1
New Load.25.3 Bus1=25.3 Phases=1 kW=0 kvar=0 kv=7.31 vminpu=0.9 vmaxpu=1.1
New Load.26.1 Bus1=26.1 Phases=1 kW=0 kvar=0 kv=7.31 vminpu=0.9 vmaxpu=1.1
New Load.26.2 Bus1=26.2 Phases=1 kW=0 kvar=0 kv=7.31 vminpu=0.9 vmaxpu=1.1
New Load.26.3 Bus1=26.3 Phases=1 kW=0 kvar=0 kv=7.31 vminpu=0.9 vmaxpu=1.1
New Load.27.1 Bus1=27.1 Phases=1 kW=0 kvar=0 kv=7.31 vminpu=0.9 vmaxpu=1.1
New Load.27.2 Bus1=27.2 Phases=1 kW=0 kvar=0 kv=7.31 vminpu=0.9 vmaxpu=1.1
New Load.27.3 Bus1=27.3 Phases=1 kW=0 kvar=0 kv=7.31 vminpu=0.9 vmaxpu=1.1
New Load.28.1 Bus1=28.1 Phases=1 kW=0 kvar=0 kv=7.31 vminpu=0.9 vmaxpu=1.1
New Load.28.2 Bus1=28.2 Phases=1 kW=0 kvar=0 kv=7.31 vminpu=0.9 vmaxpu=1.1
New Load.28.3 Bus1=28.3 Phases=1 kW=0 kvar=0 kv=7.31 vminpu=0.9 vmaxpu=1.1
New Load.29.1 Bus1=29.1 Phases=1 kW=0 kvar=0 kv=7.31 vminpu=0.9 vmaxpu=1.1
New Load.29.2 Bus1=29.2 Phases=1 kW=0 kvar=0 kv=7.31 vminpu=0.9 vmaxpu=1.1
New Load.29.3 Bus1=29.3 Phases=1 kW=0 kvar=0 kv=7.31 vminpu=0.9 vmaxpu=1.1
New Load.30.1 Bus1=30.1 Phases=1 kW=0 kvar=0 kv=7.31 vminpu=0.9 vmaxpu=1.1
New Load.30.2 Bus1=30.2 Phases=1 kW=0 kvar=0 kv=7.31 vminpu=0.9 vmaxpu=1.1
New Load.30.3 Bus1=30.3 Phases=1 kW=0 kvar=0 kv=7.31 vminpu=0.9 vmaxpu=1.1
New Load.31.1 Bus1=31.1 Phases=1 kW=0 kvar=0 kv=7.31 vminpu=0.9 vmaxpu=1.1
New Load.31.2 Bus1=31.2 Phases=1 kW=0 kvar=0 kv=7.31 vminpu=0.9 vmaxpu=1.1
New Load.31.3 Bus1=31.3 Phases=1 kW=0 kvar=0 kv=7.31 vminpu=0.9 vmaxpu=1.1
New Load.32.1 Bus1=32.1 Phases=1 kW=0 kvar=0 kv=7.31 vminpu=0.9 vmaxpu=1.1
New Load.32.2 Bus1=32.2 Phases=1 kW=0 kvar=0 kv=7.31 vminpu=0.9 vmaxpu=1.1
New Load.32.3 Bus1=32.3 Phases=1 kW=0 kvar=0 kv=7.31 vminpu=0.9 vmaxpu=1.1
New Load.33.1 Bus1=33.1 Phases=1 kW=0 kvar=0 kv=7.31 vminpu=0.9 vmaxpu=1.1
New Load.33.2 Bus1=33.2 Phases=1 kW=0 kvar=0 kv=7.31 vminpu=0.9 vmaxpu=1.1
New Load.33.3 Bus1=33.3 Phases=1 kW=0 kvar=0 kv=7.31 vminpu=0.9 vmaxpu=1.1
